# MODFLOW2000 Zone File
  1
khz1
        13         1(FREE)                      -1     K Zones for Layer 1
      1      1      1      1      1      1      1      1      1      1      1      1      1      1      1      1      1      1      1      1      1      
      1      1      1      1      1      1      1      1      1      1      1      1      1      1      1      1      1      1      1      1      1 
      1      1      1      1      1      1      1      1      1      1      1      1      1      1      1      1      1      1      1      1      1 
      1      1      1      1      1      1      1      1      1      1      1      1      1      1      1      1      1      1      1      1      1 
      1      1      1      1      1      1      1      1      1      1      1      1      1      1      1      1      1      1      1      1      1 
      1      1      1      1      1      1      1      1      1      1      1      1      1      1      1      1      1      1      1      1      1 
      1      1      1      1      1      1      1      1      1      1      1      1      1      1      1      1      1      1      1      1      1 
      1      1      1      1      1      1      1      1      1      1      1      1      1      1      1      1      1      1      1      1      1 
      1      1      1      1      1      1      1      1      1      1      1      1      1      1      1      1      1      1      1      1      1 
      1      1      1      1      1      1      1      1      1      1      1      1      1      1      1      1      1      1      1      1      1 
      1      1      1      1      1      1      1      1      1      1      1      1      1      1      1      1      1      1      1      1      1 
      1      1      1      1      1      1      1      1      1      1      1      1      1      1      1      1      1      1      1      1      1 
      1      1      1      1      1      1      1      1      1      1      1      1      1      1      1      1      1      1      1      1      1 
      1      1      1      1      1      1      1      1      1      1      1      1      1      1      1      1      1      1      1      1      1 
      1      1      1      1      1      1      1      1      1      1      1      1      1      1      1      1      1      1      1      1      1 
      1      1      1      1      1      1      1      1      1      1      1      1      1      1      1      1      1      1      1      1      1 
      1      1      1      1      1      1      1      1      1      1      1      1      1      1      1      1      1      1      1      1      1 
      1      1      1      1      1      1      1      1      1      1      1      1      1      1      1      1      1      1      1      1      1 
      1      1      1      1      1      1      1      1      1      1      1      1      1      1      1      1      1      1      1      1      1 
      1      1      1      1      1      1      1      1      1      1      1      1      1      1      1      1      1      1      1      1      1 
      1      1      1      1      1      1      1      1      1      1      1      1      1      1      1      1      1      1      1      1      1 
      