# MODFLOW2000 Discretization File
 1  21  21  1  1  2
 0
        29     1.000(10E12.4)                    0     DELTA-X or C
  1.0000e+00  1.0000e+00  1.0000e+00  1.0000e+00  1.0000e+00  1.0000e+00  1.0000e+00  1.0000e+00  1.0000e+00  1.0000e+00
  1.0000e+00  1.0000e+00  1.0000e+00  1.0000e+00  1.0000e+00  1.0000e+00  1.0000e+00  1.0000e+00  1.0000e+00  1.0000e+00
  1.0000e+00
        29     1.000(10E12.4)                    0     DELTA-Y or R
  1.0000e+00  1.0000e+00  1.0000e+00  1.0000e+00  1.0000e+00  1.0000e+00  1.0000e+00  1.0000e+00  1.0000e+00  1.0000e+00
  1.0000e+00  1.0000e+00  1.0000e+00  1.0000e+00  1.0000e+00  1.0000e+00  1.0000e+00  1.0000e+00  1.0000e+00  1.0000e+00
  1.0000e+00
         0    20.000(10e12.4)                   -1     TOP of Model
         00.0000e+00(10e12.4)                   -1     BOTTOM of Layer   1
     1.0      1  1.000000  SS
     