# MODFLOW2005 multiplier Package Parent MD
         1
M1
         8         1(FREE)                       0
.00465403450 .00420383172 .00369521222 .00314976308 .00259960692 .00208155332 .00162594483 .00124597049 9.3974613E-4 6.9860867E-4 5.1294739E-4 3.7366347E-4 2.7162398E-4 1.9831872E-4 1.4660651E-4 1.1074898E-4 8.6061102E-5 6.8805097E-5 5.6413689E-5 4.7276047E-5 4.0384193E-5
.00529438074 .00481823524 .00424961037 .00361567370 .00296251262 .00234653405 .00181549008 .00138354750 .00104110653 7.7254034E-4 5.6515144E-4 4.0953942E-4 2.9541188E-4 2.1297220E-4 1.5448224E-4 1.1412793E-4 8.6941591E-5 6.8313545E-5 5.5174711E-5 4.5689247E-5 3.8708717E-5
.00599764035 .00549912494 .00485681875 .00410964112 .00332770339 .00259670072 .00199309393 .00152111817 .00115398292 8.6558596E-4 6.3935297E-4 4.6838968E-4 3.4099786E-4 2.4606451E-4 1.7596659E-4 1.2624714E-4 9.3222936E-5 7.0936852E-5 5.5640681E-5 4.5034933E-5 3.7594068E-5
.00673074165 .00621101546 .00547680411 .00458691961 .00365198528 .00279567896 .00214091411 .00165179740 .00127626078 9.7985546E-4 7.4063600E-4 5.5894867E-4 4.1877537E-4 3.0798539E-4 2.1979717E-4 1.5214087E-4 1.0734229E-4 7.7559753E-5 5.8104405E-5 4.5409870E-5 3.7068218E-5
.00744067950 .00689444853 .00604566738 .00498670799 .00386370608 .00292637571 .00226726185 .00178530317 .00141232311 .00111118541 8.7564920E-4 6.9199534E-4 5.3988724E-4 4.0965492E-4 2.9741098E-4 2.0247721E-4 1.3193052E-4 8.8810553E-5 6.2665460E-5 4.6802868E-5 3.7099649E-5
.00806903610 .00749181459 .00651482684 .00527943198 .00404252839 .00309697507 .00243613136 .00196581866 .00159677055 .00129916326 .00107310990 8.8292492E-4 7.1036306E-4 5.4889332E-4 3.9889076E-4 2.6756098E-4 1.6580062E-4 1.0410543E-4 6.8949639E-5 4.9002904E-5 3.7562408E-5
.00857402716 .00799450482 .00694618768 .00562565008 .00435314272 .00338194962 .00272493044 .00226137381 .00189847476 .00160628684 .00136633670 .00114643575 9.2852318E-4 7.1181325E-4 5.0656489E-4 3.2980365E-4 1.9969316E-4 1.2016813E-4 7.5740380E-5 5.1500625E-5 3.8208967E-5
.00891853695 .00839371473 .00736718688 .00605287396 .00478119585 .00379889646 .00315462743 .00270759167 .00236111903 .00206243165 .00178148967 .00149364601 .00119150859 8.8859149E-4 6.1148566E-4 3.8647145E-4 2.2916506E-4 1.3417373E-4 8.1678020E-5 5.3655593E-5 3.8720906E-5
.00904757026 .00862717161 .00770768311 .00647625596 .00524529664 .00427649323 .00370846686 .00334150377 .00302935020 .00270401019 .00233895255 .00192986421 .00149534391 .00107420684 7.1091335E-4 4.3572602E-4 2.5263297E-4 1.4458898E-4 8.5762122E-5 5.4907668E-5 3.8800033E-5
.00889801898 .00859006814 .00782414693 .00674364867 .00556339924 .00475751691 .00443074719 .00422205975 .00395080018 .00355512670 .00304001346 .00244477951 .00182959404 .00126316512 8.0306012E-4 4.7598529E-4 2.6940999E-4 1.5064525E-4 8.7404438E-5 5.4892813E-5 3.8246440E-5
.00844950938 .00822503336 .00761529567 .00672141381 .00581738071 .00541822869 .00542046401 .00539287790 .00511676037 .00456875423 .00382459297 .00298880398 .00216617496 .00144642341 8.8860537E-4 5.0847277E-4 2.7873890E-4 1.5192532E-4 8.6380213E-5 5.3494367E-5 3.7006138E-5
.00776273222 .00761124966 .00721646257 .00666937791 .00621539449 .00623789877 .00659398823 .00668976371 .00630616871 .00551984068 .00451121084 .00344213644 .00244058681 .00159635623 9.5710112E-4 5.3024544E-4 2.8034060E-4 1.4839076E-4 8.2804064E-5 5.0847680E-5 3.5180008E-5
.00693487524 .00684620000 .00668370446 .00653187171 .00652820402 .00684563128 .00736284571 .00752599044 .00696439814 .00597299746 .00480487610 .00362528362 .00255307719 .00166399918 9.8769293E-4 5.3227956E-4 2.7134946E-4 1.3967968E-4 7.6967494E-5 4.7277435E-5 3.2990277E-5
.00605535460 .00599346312 .00598354823 .00611274034 .00644249653 .00681833893 .00720183404 .00720575468 .00655331768 .00557734150 .00448868758 .00340415942 .00241779412 .00159696821 9.5299566E-4 5.0321921E-4 2.4822796E-4 1.2559905E-4 6.9403327E-5 4.3247238E-5 3.0727953E-5
.00519757781 .00511776748 .00513230387 .00531280556 .00568990853 .00605670334 .00620551100 .00590017980 .00528893945 .00450038202 .00365784351 .00281310730 .00203582712 .00136794510 8.2443364E-4 4.3439483E-4 2.0985987E-4 1.0734406E-4 6.1095635E-5 3.9316294E-5 2.8692047E-5
.00441657966 .00429770258 .00425640403 .00432915232 .00454501165 .00472350891 .00466717217 .00434401234 .00384534435 .00326127726 .00265025249 .00204525427 .00149017676 .00100999667 6.1935829E-4 3.3005797E-4 1.6280436E-4 8.8583916E-5 5.3444378E-5 3.6020336E-5 2.7115813E-5
.00373988417 .00358775459 .00348529084 .00344469358 .00345131857 .00344149808 .00330062469 .00301547899 .00263578306 .00221129752 .00176949661 .00135108907 9.7600302E-4 6.5687225E-4 4.0332114E-4 2.2513029E-4 1.2500308E-4 7.3753612E-5 4.7531144E-5 3.3647657E-5 2.6095843E-5
.00316819389 .00299501251 .00284734664 .00272658654 .00261946386 .00249459087 .00230986539 .00205850388 .00176320209 .00145047170 .00114201660 8.5973686E-4 6.1538155E-4 4.1508059E-4 2.6265107E-4 1.5900499E-4 9.7495597E-5 6.2797382E-5 4.3294335E-5 3.2128210E-5 2.5587005E-5
.00269073814 .00250830331 .00233624170 .00217421006 .00201487329 .00184476198 .00165028700 .00143078678 .00119782723 9.6635606E-4 7.4993538E-4 5.5946199E-4 4.0056173E-4 2.7503453E-4 1.8229120E-4 1.1920646E-4 7.9514012E-5 5.5275550E-5 4.0469963E-5 3.1297898E-5 2.5493245E-5
.00229463969 .00211278618 .00193423102 .00175942275 .00158583861 .00140912098 .00122606204 .00103855757 8.5341281E-4 6.7906373E-4 5.2293618E-4 3.9005739E-4 2.8234210E-4 1.9923639E-4 1.3848780E-4 9.6503319E-5 6.8744204E-5 5.0678438E-5 3.8868341E-5 3.1035071E-5 2.5730582E-5
.00196754380 .00179339933 .00162077983 .00145083406 .00128355847 .00111846544 9.5586649E-4 7.9811406E-4 6.4940542E-4 5.1439572E-4 3.9683668E-4 2.9877978E-4 2.2037965E-4 1.6027095E-4 1.1606752E-4 8.4772546E-5 6.3196104E-5 4.8447836E-5 3.8310761E-5 3.1247572E-5 2.6235051E-5
