
c:\bgaPEST\bgaPEST\Example>copy ..\Debug\bgaPEST.exe . 
        1 file(s) copied.

c:\bgaPEST\bgaPEST\Example>bgaPEST.exe BP_test_PEST.bgp 
 
 *******************************************
 *          Welcome to bgaPEST             *
 *******************************************
            Brought to you by:             
      United States Geological Survey      
       Watermark Numerical Computing       
             University of Parma           
 *******************************************
 
 
Warning: No structural parameter opimization requested. it_max_bga in 
  algorithmic_cv block must be 1. The entered value will be ignored.
 Number of template files        =      1
 Number of instruction files     =      1
 Number of parameter             =    441
 Number of observations          =     12
 

c:\bgaPEST\bgaPEST\Example>MF05a_O2.exe S1_1_adj.nam 

                      MODFLOW-ADJOINT Version 0.96 07/14/2007
         SENSITIVITY CALCULATIONS USING THE ADJOINT STATE METHOD FOR

    U.S. GEOLOGICAL SURVEY MODULAR FINITE-DIFFERENCE GROUND-WATER FLOW MODEL
                        MODFLOW-2005 Version 1.1 05/18/2006                          

 Using NAME file: S1_1_adj.nam 
 Run start date and time (yyyy/mm/dd hh:mm:ss): 2010/12/30 16:20:34

 Solving:  Stress period:     1    Time step:     1    Ground-Water Flow Eqn.
  START OF ADJOINT STATE CALCULATIONS
        SENSITIVITY CALCULATION FOR GLOBAL OBSERVATION  1
        SENSITIVITY CALCULATION FOR GLOBAL OBSERVATION  2
        SENSITIVITY CALCULATION FOR GLOBAL OBSERVATION  3
        SENSITIVITY CALCULATION FOR GLOBAL OBSERVATION  4
        SENSITIVITY CALCULATION FOR GLOBAL OBSERVATION  5
        SENSITIVITY CALCULATION FOR GLOBAL OBSERVATION  6
        SENSITIVITY CALCULATION FOR GLOBAL OBSERVATION  7
        SENSITIVITY CALCULATION FOR GLOBAL OBSERVATION  8
        SENSITIVITY CALCULATION FOR GLOBAL OBSERVATION  9
        SENSITIVITY CALCULATION FOR GLOBAL OBSERVATION 10
        SENSITIVITY CALCULATION FOR GLOBAL OBSERVATION 11
        SENSITIVITY CALCULATION FOR GLOBAL OBSERVATION 12
 Run end date and time (yyyy/mm/dd hh:mm:ss): 2010/12/30 16:20:34
 Elapsed run time:  0.094 Seconds

  Normal termination of simulation
           0

c:\bgaPEST\bgaPEST\Example>MF05a_O2.exe S1_1_forward.nam 

                      MODFLOW-ADJOINT Version 0.96 07/14/2007
         SENSITIVITY CALCULATIONS USING THE ADJOINT STATE METHOD FOR

    U.S. GEOLOGICAL SURVEY MODULAR FINITE-DIFFERENCE GROUND-WATER FLOW MODEL
                        MODFLOW-2005 Version 1.1 05/18/2006                          

 Using NAME file: S1_1_forward.nam 
 Run start date and time (yyyy/mm/dd hh:mm:ss): 2010/12/30 16:20:34

 Solving:  Stress period:     1    Time step:     1    Ground-Water Flow Eqn.
 Run end date and time (yyyy/mm/dd hh:mm:ss): 2010/12/30 16:20:34
 Elapsed run time:  0.015 Seconds

  Normal termination of simulation

c:\bgaPEST\bgaPEST\Example>MF05a_O2.exe S1_1_forward.nam 

                      MODFLOW-ADJOINT Version 0.96 07/14/2007
         SENSITIVITY CALCULATIONS USING THE ADJOINT STATE METHOD FOR

    U.S. GEOLOGICAL SURVEY MODULAR FINITE-DIFFERENCE GROUND-WATER FLOW MODEL
                        MODFLOW-2005 Version 1.1 05/18/2006                          

 Using NAME file: S1_1_forward.nam 
 Run start date and time (yyyy/mm/dd hh:mm:ss): 2010/12/30 16:20:34

 Solving:  Stress period:     1    Time step:     1    Ground-Water Flow Eqn.
 Run end date and time (yyyy/mm/dd hh:mm:ss): 2010/12/30 16:20:34
 Elapsed run time:  0.015 Seconds

  Normal termination of simulation

c:\bgaPEST\bgaPEST\Example>MF05a_O2.exe S1_1_forward.nam 

                      MODFLOW-ADJOINT Version 0.96 07/14/2007
         SENSITIVITY CALCULATIONS USING THE ADJOINT STATE METHOD FOR

    U.S. GEOLOGICAL SURVEY MODULAR FINITE-DIFFERENCE GROUND-WATER FLOW MODEL
                        MODFLOW-2005 Version 1.1 05/18/2006                          

 Using NAME file: S1_1_forward.nam 
 Run start date and time (yyyy/mm/dd hh:mm:ss): 2010/12/30 16:20:34

 Solving:  Stress period:     1    Time step:     1    Ground-Water Flow Eqn.
 Run end date and time (yyyy/mm/dd hh:mm:ss): 2010/12/30 16:20:34
 Elapsed run time:  0.015 Seconds

  Normal termination of simulation

c:\bgaPEST\bgaPEST\Example>MF05a_O2.exe S1_1_forward.nam 

                      MODFLOW-ADJOINT Version 0.96 07/14/2007
         SENSITIVITY CALCULATIONS USING THE ADJOINT STATE METHOD FOR

    U.S. GEOLOGICAL SURVEY MODULAR FINITE-DIFFERENCE GROUND-WATER FLOW MODEL
                        MODFLOW-2005 Version 1.1 05/18/2006                          

 Using NAME file: S1_1_forward.nam 
 Run start date and time (yyyy/mm/dd hh:mm:ss): 2010/12/30 16:20:34

 Solving:  Stress period:     1    Time step:     1    Ground-Water Flow Eqn.
 Run end date and time (yyyy/mm/dd hh:mm:ss): 2010/12/30 16:20:34
 Elapsed run time:  0.015 Seconds

  Normal termination of simulation

c:\bgaPEST\bgaPEST\Example>MF05a_O2.exe S1_1_forward.nam 

                      MODFLOW-ADJOINT Version 0.96 07/14/2007
         SENSITIVITY CALCULATIONS USING THE ADJOINT STATE METHOD FOR

    U.S. GEOLOGICAL SURVEY MODULAR FINITE-DIFFERENCE GROUND-WATER FLOW MODEL
                        MODFLOW-2005 Version 1.1 05/18/2006                          

 Using NAME file: S1_1_forward.nam 
 Run start date and time (yyyy/mm/dd hh:mm:ss): 2010/12/30 16:20:34

 Solving:  Stress period:     1    Time step:     1    Ground-Water Flow Eqn.
 Run end date and time (yyyy/mm/dd hh:mm:ss): 2010/12/30 16:20:34
 Elapsed run time:  0.016 Seconds

  Normal termination of simulation

c:\bgaPEST\bgaPEST\Example>MF05a_O2.exe S1_1_forward.nam 

                      MODFLOW-ADJOINT Version 0.96 07/14/2007
         SENSITIVITY CALCULATIONS USING THE ADJOINT STATE METHOD FOR

    U.S. GEOLOGICAL SURVEY MODULAR FINITE-DIFFERENCE GROUND-WATER FLOW MODEL
                        MODFLOW-2005 Version 1.1 05/18/2006                          

 Using NAME file: S1_1_forward.nam 
 Run start date and time (yyyy/mm/dd hh:mm:ss): 2010/12/30 16:20:34

 Solving:  Stress period:     1    Time step:     1    Ground-Water Flow Eqn.
 Run end date and time (yyyy/mm/dd hh:mm:ss): 2010/12/30 16:20:34
 Elapsed run time:  0.000 Seconds

  Normal termination of simulation
  5.000000000000000E-004

c:\bgaPEST\bgaPEST\Example>MF05a_O2.exe S1_1_adj.nam 

                      MODFLOW-ADJOINT Version 0.96 07/14/2007
         SENSITIVITY CALCULATIONS USING THE ADJOINT STATE METHOD FOR

    U.S. GEOLOGICAL SURVEY MODULAR FINITE-DIFFERENCE GROUND-WATER FLOW MODEL
                        MODFLOW-2005 Version 1.1 05/18/2006                          

 Using NAME file: S1_1_adj.nam 
 Run start date and time (yyyy/mm/dd hh:mm:ss): 2010/12/30 16:20:34

 Solving:  Stress period:     1    Time step:     1    Ground-Water Flow Eqn.
  START OF ADJOINT STATE CALCULATIONS
        SENSITIVITY CALCULATION FOR GLOBAL OBSERVATION  1
        SENSITIVITY CALCULATION FOR GLOBAL OBSERVATION  2
        SENSITIVITY CALCULATION FOR GLOBAL OBSERVATION  3
        SENSITIVITY CALCULATION FOR GLOBAL OBSERVATION  4
        SENSITIVITY CALCULATION FOR GLOBAL OBSERVATION  5
        SENSITIVITY CALCULATION FOR GLOBAL OBSERVATION  6
        SENSITIVITY CALCULATION FOR GLOBAL OBSERVATION  7
        SENSITIVITY CALCULATION FOR GLOBAL OBSERVATION  8
        SENSITIVITY CALCULATION FOR GLOBAL OBSERVATION  9
        SENSITIVITY CALCULATION FOR GLOBAL OBSERVATION 10
        SENSITIVITY CALCULATION FOR GLOBAL OBSERVATION 11
        SENSITIVITY CALCULATION FOR GLOBAL OBSERVATION 12
 Run end date and time (yyyy/mm/dd hh:mm:ss): 2010/12/30 16:20:34
 Elapsed run time:  0.078 Seconds

  Normal termination of simulation
           0

c:\bgaPEST\bgaPEST\Example>MF05a_O2.exe S1_1_forward.nam 

                      MODFLOW-ADJOINT Version 0.96 07/14/2007
         SENSITIVITY CALCULATIONS USING THE ADJOINT STATE METHOD FOR

    U.S. GEOLOGICAL SURVEY MODULAR FINITE-DIFFERENCE GROUND-WATER FLOW MODEL
                        MODFLOW-2005 Version 1.1 05/18/2006                          

 Using NAME file: S1_1_forward.nam 
 Run start date and time (yyyy/mm/dd hh:mm:ss): 2010/12/30 16:20:34

 Solving:  Stress period:     1    Time step:     1    Ground-Water Flow Eqn.
 Run end date and time (yyyy/mm/dd hh:mm:ss): 2010/12/30 16:20:34
 Elapsed run time:  0.015 Seconds

  Normal termination of simulation

c:\bgaPEST\bgaPEST\Example>MF05a_O2.exe S1_1_forward.nam 

                      MODFLOW-ADJOINT Version 0.96 07/14/2007
         SENSITIVITY CALCULATIONS USING THE ADJOINT STATE METHOD FOR

    U.S. GEOLOGICAL SURVEY MODULAR FINITE-DIFFERENCE GROUND-WATER FLOW MODEL
                        MODFLOW-2005 Version 1.1 05/18/2006                          

 Using NAME file: S1_1_forward.nam 
 Run start date and time (yyyy/mm/dd hh:mm:ss): 2010/12/30 16:20:34

 Solving:  Stress period:     1    Time step:     1    Ground-Water Flow Eqn.
 Run end date and time (yyyy/mm/dd hh:mm:ss): 2010/12/30 16:20:34
 Elapsed run time:  0.000 Seconds

  Normal termination of simulation

c:\bgaPEST\bgaPEST\Example>MF05a_O2.exe S1_1_forward.nam 

                      MODFLOW-ADJOINT Version 0.96 07/14/2007
         SENSITIVITY CALCULATIONS USING THE ADJOINT STATE METHOD FOR

    U.S. GEOLOGICAL SURVEY MODULAR FINITE-DIFFERENCE GROUND-WATER FLOW MODEL
                        MODFLOW-2005 Version 1.1 05/18/2006                          

 Using NAME file: S1_1_forward.nam 
 Run start date and time (yyyy/mm/dd hh:mm:ss): 2010/12/30 16:20:34

 Solving:  Stress period:     1    Time step:     1    Ground-Water Flow Eqn.
 Run end date and time (yyyy/mm/dd hh:mm:ss): 2010/12/30 16:20:34
 Elapsed run time:  0.016 Seconds

  Normal termination of simulation

c:\bgaPEST\bgaPEST\Example>MF05a_O2.exe S1_1_forward.nam 

                      MODFLOW-ADJOINT Version 0.96 07/14/2007
         SENSITIVITY CALCULATIONS USING THE ADJOINT STATE METHOD FOR

    U.S. GEOLOGICAL SURVEY MODULAR FINITE-DIFFERENCE GROUND-WATER FLOW MODEL
                        MODFLOW-2005 Version 1.1 05/18/2006                          

 Using NAME file: S1_1_forward.nam 
 Run start date and time (yyyy/mm/dd hh:mm:ss): 2010/12/30 16:20:34

 Solving:  Stress period:     1    Time step:     1    Ground-Water Flow Eqn.
 Run end date and time (yyyy/mm/dd hh:mm:ss): 2010/12/30 16:20:34
 Elapsed run time:  0.016 Seconds

  Normal termination of simulation

c:\bgaPEST\bgaPEST\Example>MF05a_O2.exe S1_1_forward.nam 

                      MODFLOW-ADJOINT Version 0.96 07/14/2007
         SENSITIVITY CALCULATIONS USING THE ADJOINT STATE METHOD FOR

    U.S. GEOLOGICAL SURVEY MODULAR FINITE-DIFFERENCE GROUND-WATER FLOW MODEL
                        MODFLOW-2005 Version 1.1 05/18/2006                          

 Using NAME file: S1_1_forward.nam 
 Run start date and time (yyyy/mm/dd hh:mm:ss): 2010/12/30 16:20:34

 Solving:  Stress period:     1    Time step:     1    Ground-Water Flow Eqn.
 Run end date and time (yyyy/mm/dd hh:mm:ss): 2010/12/30 16:20:34
 Elapsed run time:  0.000 Seconds

  Normal termination of simulation

c:\bgaPEST\bgaPEST\Example>MF05a_O2.exe S1_1_forward.nam 

                      MODFLOW-ADJOINT Version 0.96 07/14/2007
         SENSITIVITY CALCULATIONS USING THE ADJOINT STATE METHOD FOR

    U.S. GEOLOGICAL SURVEY MODULAR FINITE-DIFFERENCE GROUND-WATER FLOW MODEL
                        MODFLOW-2005 Version 1.1 05/18/2006                          

 Using NAME file: S1_1_forward.nam 
 Run start date and time (yyyy/mm/dd hh:mm:ss): 2010/12/30 16:20:35

 Solving:  Stress period:     1    Time step:     1    Ground-Water Flow Eqn.
 Run end date and time (yyyy/mm/dd hh:mm:ss): 2010/12/30 16:20:35
 Elapsed run time:  0.016 Seconds

  Normal termination of simulation
  5.000000000000000E-004
 Good Job!
  2.001202088343372E-004
  2.001202088343323E-004
  2.001202088343188E-004
  2.001202088342946E-004
  2.001202088342576E-004
  2.001202088342064E-004
  2.001202088341400E-004
  2.001202088340593E-004
  2.001202088339657E-004
  2.001202088338612E-004
  2.001202088337489E-004
  2.001202088336316E-004
  2.001202088335143E-004
  2.001202088333998E-004
  2.001202088332910E-004
  2.001202088331904E-004
  2.001202088330984E-004
  2.001202088330152E-004
  2.001202088329405E-004
  2.001202088328737E-004
  2.001202088328144E-004
  2.001202088343365E-004
  2.001202088343344E-004
  2.001202088343227E-004
  2.001202088342992E-004
  2.001202088342612E-004
  2.001202088342068E-004
  2.001202088341357E-004
  2.001202088340493E-004
  2.001202088339498E-004
  2.001202088338388E-004
  2.001202088337194E-004
  2.001202088335953E-004
  2.001202088334709E-004
  2.001202088333504E-004
  2.001202088332363E-004
  2.001202088331314E-004
  2.001202088330365E-004
  2.001202088329519E-004
  2.001202088328769E-004
  2.001202088328108E-004
  2.001202088327525E-004
  2.001202088343276E-004
  2.001202088343276E-004
  2.001202088343166E-004
  2.001202088342914E-004
  2.001202088342494E-004
  2.001202088341890E-004
  2.001202088341108E-004
  2.001202088340177E-004
  2.001202088339128E-004
  2.001202088337983E-004
  2.001202088336757E-004
  2.001202088335484E-004
  2.001202088334208E-004
  2.001202088332964E-004
  2.001202088331783E-004
  2.001202088330696E-004
  2.001202088329722E-004
  2.001202088328858E-004
  2.001202088328101E-004
  2.001202088327447E-004
  2.001202088326878E-004
  2.001202088343084E-004
  2.001202088343091E-004
  2.001202088342963E-004
  2.001202088342672E-004
  2.001202088342181E-004
  2.001202088341481E-004
  2.001202088340607E-004
  2.001202088339594E-004
  2.001202088338499E-004
  2.001202088337361E-004
  2.001202088336160E-004
  2.001202088334919E-004
  2.001202088333657E-004
  2.001202088332395E-004
  2.001202088331190E-004
  2.001202088330067E-004
  2.001202088329060E-004
  2.001202088328179E-004
  2.001202088327415E-004
  2.001202088326764E-004
  2.001202088326217E-004
  2.001202088342768E-004
  2.001202088342765E-004
  2.001202088342605E-004
  2.001202088342242E-004
  2.001202088341641E-004
  2.001202088340824E-004
  2.001202088339839E-004
  2.001202088338716E-004
  2.001202088337581E-004
  2.001202088336487E-004
  2.001202088335413E-004
  2.001202088334297E-004
  2.001202088333099E-004
  2.001202088331844E-004
  2.001202088330610E-004
  2.001202088329452E-004
  2.001202088328406E-004
  2.001202088327497E-004
  2.001202088326722E-004
  2.001202088326075E-004
  2.001202088325541E-004
  2.001202088342316E-004
  2.001202088342281E-004
  2.001202088342061E-004
  2.001202088341609E-004
  2.001202088340895E-004
  2.001202088339953E-004
  2.001202088338819E-004
  2.001202088337560E-004
  2.001202088336433E-004
  2.001202088335470E-004
  2.001202088334620E-004
  2.001202088333700E-004
  2.001202088332608E-004
  2.001202088331350E-004
  2.001202088330077E-004
  2.001202088328869E-004
  2.001202088327774E-004
  2.001202088326825E-004
  2.001202088326032E-004
  2.001202088325385E-004
  2.001202088324873E-004
  2.001202088341719E-004
  2.001202088341641E-004
  2.001202088341353E-004
  2.001202088340813E-004
  2.001202088339992E-004
  2.001202088338904E-004
  2.001202088337546E-004
  2.001202088336220E-004
  2.001202088335221E-004
  2.001202088334499E-004
  2.001202088333913E-004
  2.001202088333209E-004
  2.001202088332242E-004
  2.001202088330980E-004
  2.001202088329612E-004
  2.001202088328321E-004
  2.001202088327162E-004
  2.001202088326171E-004
  2.001202088325353E-004
  2.001202088324709E-004
  2.001202088324212E-004
  2.001202088340987E-004
  2.001202088340856E-004
  2.001202088340507E-004
  2.001202088339889E-004
  2.001202088338971E-004
  2.001202088337752E-004
  2.001202088336323E-004
  2.001202088335065E-004
  2.001202088334187E-004
  2.001202088333692E-004
  2.001202088333366E-004
  2.001202088332818E-004
  2.001202088331901E-004
  2.001202088330646E-004
  2.001202088329206E-004
  2.001202088327816E-004
  2.001202088326576E-004
  2.001202088325531E-004
  2.001202088324695E-004
  2.001202088324048E-004
  2.001202088323572E-004
  2.001202088340130E-004
  2.001202088339949E-004
  2.001202088339554E-004
  2.001202088338900E-004
  2.001202088337951E-004
  2.001202088336750E-004
  2.001202088335438E-004
  2.001202088334286E-004
  2.001202088333508E-004
  2.001202088333166E-004
  2.001202088333024E-004
  2.001202088332498E-004
  2.001202088331531E-004
  2.001202088330230E-004
  2.001202088328758E-004
  2.001202088327294E-004
  2.001202088325982E-004
  2.001202088324905E-004
  2.001202088324055E-004
  2.001202088323419E-004
  2.001202088322960E-004
  2.001202088339174E-004
  2.001202088338939E-004
  2.001202088338524E-004
  2.001202088337884E-004
  2.001202088336988E-004
  2.001202088335911E-004
  2.001202088334819E-004
  2.001202088333867E-004
  2.001202088333220E-004
  2.001202088333028E-004
  2.001202088332829E-004
  2.001202088332136E-004
  2.001202088331051E-004
  2.001202088329697E-004
  2.001202088328211E-004
  2.001202088326711E-004
  2.001202088325371E-004
  2.001202088324286E-004
  2.001202088323444E-004
  2.001202088322818E-004
  2.001202088322381E-004
  2.001202088338143E-004
  2.001202088337855E-004
  2.001202088337429E-004
  2.001202088336828E-004
  2.001202088336057E-004
  2.001202088335186E-004
  2.001202088334325E-004
  2.001202088333607E-004
  2.001202088333124E-004
  2.001202088332857E-004
  2.001202088332370E-004
  2.001202088331535E-004
  2.001202088330376E-004
  2.001202088328993E-004
  2.001202088327511E-004
  2.001202088326050E-004
  2.001202088324745E-004
  2.001202088323682E-004
  2.001202088322857E-004
  2.001202088322257E-004
  2.001202088321844E-004
  2.001202088337066E-004
  2.001202088336728E-004
  2.001202088336291E-004
  2.001202088335747E-004
  2.001202088335104E-004
  2.001202088334414E-004
  2.001202088333746E-004
  2.001202088333166E-004
  2.001202088332701E-004
  2.001202088332256E-004
  2.001202088331606E-004
  2.001202088330678E-004
  2.001202088329494E-004
  2.001202088328129E-004
  2.001202088326693E-004
  2.001202088325310E-004
  2.001202088324087E-004
  2.001202088323078E-004
  2.001202088322299E-004
  2.001202088321734E-004
  2.001202088321347E-004
  2.001202088335971E-004
  2.001202088335580E-004
  2.001202088335132E-004
  2.001202088334631E-004
  2.001202088334084E-004
  2.001202088333511E-004
  2.001202088332950E-004
  2.001202088332416E-004
  2.001202088331901E-004
  2.001202088331325E-004
  2.001202088330571E-004
  2.001202088329601E-004
  2.001202088328442E-004
  2.001202088327137E-004
  2.001202088325786E-004
  2.001202088324514E-004
  2.001202088323401E-004
  2.001202088322480E-004
  2.001202088321766E-004
  2.001202088321243E-004
  2.001202088320892E-004
  2.001202088334887E-004
  2.001202088334442E-004
  2.001202088333973E-004
  2.001202088333490E-004
  2.001202088332989E-004
  2.001202088332466E-004
  2.001202088331933E-004
  2.001202088331389E-004
  2.001202088330817E-004
  2.001202088330159E-004
  2.001202088329345E-004
  2.001202088328367E-004
  2.001202088327258E-004
  2.001202088326046E-004
  2.001202088324827E-004
  2.001202088323703E-004
  2.001202088322715E-004
  2.001202088321897E-004
  2.001202088321261E-004
  2.001202088320796E-004
  2.001202088320483E-004
  2.001202088333842E-004
  2.001202088333348E-004
  2.001202088332839E-004
  2.001202088332334E-004
  2.001202088331847E-004
  2.001202088331325E-004
  2.001202088330763E-004
  2.001202088330177E-004
  2.001202088329551E-004
  2.001202088328851E-004
  2.001202088328012E-004
  2.001202088327063E-004
  2.001202088326028E-004
  2.001202088324944E-004
  2.001202088323895E-004
  2.001202088322921E-004
  2.001202088322061E-004
  2.001202088321354E-004
  2.001202088320799E-004
  2.001202088320394E-004
  2.001202088320117E-004
  2.001202088332861E-004
  2.001202088332317E-004
  2.001202088331759E-004
  2.001202088331208E-004
  2.001202088330682E-004
  2.001202088330141E-004
  2.001202088329541E-004
  2.001202088328904E-004
  2.001202088328222E-004
  2.001202088327486E-004
  2.001202088326672E-004
  2.001202088325794E-004
  2.001202088324866E-004
  2.001202088323931E-004
  2.001202088323028E-004
  2.001202088322193E-004
  2.001202088321460E-004
  2.001202088320863E-004
  2.001202088320394E-004
  2.001202088320045E-004
  2.001202088319800E-004
  2.001202088331958E-004
  2.001202088331378E-004
  2.001202088330778E-004
  2.001202088330177E-004
  2.001202088329587E-004
  2.001202088328997E-004
  2.001202088328364E-004
  2.001202088327688E-004
  2.001202088326974E-004
  2.001202088326220E-004
  2.001202088325456E-004
  2.001202088324660E-004
  2.001202088323842E-004
  2.001202088323035E-004
  2.001202088322264E-004
  2.001202088321556E-004
  2.001202088320948E-004
  2.001202088320444E-004
  2.001202088320045E-004
  2.001202088319747E-004
  2.001202088319537E-004
  2.001202088331140E-004
  2.001202088330536E-004
  2.001202088329907E-004
  2.001202088329270E-004
  2.001202088328630E-004
  2.001202088327987E-004
  2.001202088327322E-004
  2.001202088326625E-004
  2.001202088325904E-004
  2.001202088325171E-004
  2.001202088324443E-004
  2.001202088323714E-004
  2.001202088322992E-004
  2.001202088322292E-004
  2.001202088321635E-004
  2.001202088321041E-004
  2.001202088320529E-004
  2.001202088320102E-004
  2.001202088319765E-004
  2.001202088319509E-004
  2.001202088319317E-004
  2.001202088330401E-004
  2.001202088329786E-004
  2.001202088329146E-004
  2.001202088328485E-004
  2.001202088327816E-004
  2.001202088327144E-004
  2.001202088326455E-004
  2.001202088325754E-004
  2.001202088325047E-004
  2.001202088324340E-004
  2.001202088323647E-004
  2.001202088322978E-004
  2.001202088322328E-004
  2.001202088321716E-004
  2.001202088321147E-004
  2.001202088320639E-004
  2.001202088320202E-004
  2.001202088319839E-004
  2.001202088319548E-004
  2.001202088319317E-004
  2.001202088319146E-004
  2.001202088329743E-004
  2.001202088329124E-004
  2.001202088328481E-004
  2.001202088327816E-004
  2.001202088327141E-004
  2.001202088326458E-004
  2.001202088325769E-004
  2.001202088325075E-004
  2.001202088324386E-004
  2.001202088323710E-004
  2.001202088323056E-004
  2.001202088322434E-004
  2.001202088321844E-004
  2.001202088321297E-004
  2.001202088320796E-004
  2.001202088320351E-004
  2.001202088319967E-004
  2.001202088319644E-004
  2.001202088319384E-004
  2.001202088319174E-004
  2.001202088319015E-004
  2.001202088329153E-004
  2.001202088328541E-004
  2.001202088327909E-004
  2.001202088327255E-004
  2.001202088326586E-004
  2.001202088325911E-004
  2.001202088325235E-004
  2.001202088324564E-004
  2.001202088323902E-004
  2.001202088323263E-004
  2.001202088322644E-004
  2.001202088322061E-004
  2.001202088321517E-004
  2.001202088321012E-004
  2.001202088320557E-004
  2.001202088320156E-004
  2.001202088319807E-004
  2.001202088319512E-004
  2.001202088319267E-004
  2.001202088319071E-004
  2.001202088318915E-004
