# MODFLOW2005 Basic Package

         1         1(FREE)                      -1     IBOUND Layer   1
 -1 -1 -1 -1 -1 -1 -1 -1 -1 -1 -1 -1 -1 -1 -1 -1 -1 -1 -1 -1 -1
 -1  1  1  1  1  1  1  1  1  1  1  1  1  1  1  1  1  1  1  1 -1
 -1  1  1  1  1  1  1  1  1  1  1  1  1  1  1  1  1  1  1  1 -1
 -1  1  1  1  1  1  1  1  1  1  1  1  1  1  1  1  1  1  1  1 -1
 -1  1  1  1  1  1  1  1  1  1  1  1  1  1  1  1  1  1  1  1 -1
 -1  1  1  1  1  1  1  1  1  1  1  1  1  1  1  1  1  1  1  1 -1
 -1  1  1  1  1  1  1  1  1  1  1  1  1  1  1  1  1  1  1  1 -1
 -1  1  1  1  1  1  1  1  1  1  1  1  1  1  1  1  1  1  1  1 -1
 -1  1  1  1  1  1  1  1  1  1  1  1  1  1  1  1  1  1  1  1 -1
 -1  1  1  1  1  1  1  1  1  1  1  1  1  1  1  1  1  1  1  1 -1
 -1  1  1  1  1  1  1  1  1  1  1  1  1  1  1  1  1  1  1  1 -1
 -1  1  1  1  1  1  1  1  1  1  1  1  1  1  1  1  1  1  1  1 -1
 -1  1  1  1  1  1  1  1  1  1  1  1  1  1  1  1  1  1  1  1 -1
 -1  1  1  1  1  1  1  1  1  1  1  1  1  1  1  1  1  1  1  1 -1
 -1  1  1  1  1  1  1  1  1  1  1  1  1  1  1  1  1  1  1  1 -1
 -1  1  1  1  1  1  1  1  1  1  1  1  1  1  1  1  1  1  1  1 -1
 -1  1  1  1  1  1  1  1  1  1  1  1  1  1  1  1  1  1  1  1 -1
 -1  1  1  1  1  1  1  1  1  1  1  1  1  1  1  1  1  1  1  1 -1
 -1  1  1  1  1  1  1  1  1  1  1  1  1  1  1  1  1  1  1  1 -1
 -1  1  1  1  1  1  1  1  1  1  1  1  1  1  1  1  1  1  1  1 -1
 -1 -1 -1 -1 -1 -1 -1 -1 -1 -1 -1 -1 -1 -1 -1 -1 -1 -1 -1 -1 -1 
9.9900e+02
         1         1(FREE)                      -1     STARTING HEADS Layer   1
 3.500000E+01 3.500000E+01 3.500000E+01 3.500000E+01 3.500000E+01 3.500000E+01 3.500000E+01 3.500000E+01 3.500000E+01 3.500000E+01 3.500000E+01 3.500000E+01 3.500000E+01 3.500000E+01 3.500000E+01 3.500000E+01 3.500000E+01 3.500000E+01 3.500000E+01 3.500000E+01 3.500000E+01  
 3.500000E+01 3.500000E+01 3.500000E+01 3.500000E+01 3.500000E+01 3.500000E+01 3.500000E+01 3.500000E+01 3.500000E+01 3.500000E+01 3.500000E+01 3.500000E+01 3.500000E+01 3.500000E+01 3.500000E+01 3.500000E+01 3.500000E+01 3.500000E+01 3.500000E+01 3.500000E+01 3.500000E+01  
 3.500000E+01 3.500000E+01 3.500000E+01 3.500000E+01 3.500000E+01 3.500000E+01 3.500000E+01 3.500000E+01 3.500000E+01 3.500000E+01 3.500000E+01 3.500000E+01 3.500000E+01 3.500000E+01 3.500000E+01 3.500000E+01 3.500000E+01 3.500000E+01 3.500000E+01 3.500000E+01 3.500000E+01 
 3.500000E+01 3.500000E+01 3.500000E+01 3.500000E+01 3.500000E+01 3.500000E+01 3.500000E+01 3.500000E+01 3.500000E+01 3.500000E+01 3.500000E+01 3.500000E+01 3.500000E+01 3.500000E+01 3.500000E+01 3.500000E+01 3.500000E+01 3.500000E+01 3.500000E+01 3.500000E+01 3.500000E+01 
 3.500000E+01 3.500000E+01 3.500000E+01 3.500000E+01 3.500000E+01 3.500000E+01 3.500000E+01 3.500000E+01 3.500000E+01 3.500000E+01 3.500000E+01 3.500000E+01 3.500000E+01 3.500000E+01 3.500000E+01 3.500000E+01 3.500000E+01 3.500000E+01 3.500000E+01 3.500000E+01 3.500000E+01 
 3.500000E+01 3.500000E+01 3.500000E+01 3.500000E+01 3.500000E+01 3.500000E+01 3.500000E+01 3.500000E+01 3.500000E+01 3.500000E+01 3.500000E+01 3.500000E+01 3.500000E+01 3.500000E+01 3.500000E+01 3.500000E+01 3.500000E+01 3.500000E+01 3.500000E+01 3.500000E+01 3.500000E+01 
 3.500000E+01 3.500000E+01 3.500000E+01 3.500000E+01 3.500000E+01 3.500000E+01 3.500000E+01 3.500000E+01 3.500000E+01 3.500000E+01 3.500000E+01 3.500000E+01 3.500000E+01 3.500000E+01 3.500000E+01 3.500000E+01 3.500000E+01 3.500000E+01 3.500000E+01 3.500000E+01 3.500000E+01 
 3.500000E+01 3.500000E+01 3.500000E+01 3.500000E+01 3.500000E+01 3.500000E+01 3.500000E+01 3.500000E+01 3.500000E+01 3.500000E+01 3.500000E+01 3.500000E+01 3.500000E+01 3.500000E+01 3.500000E+01 3.500000E+01 3.500000E+01 3.500000E+01 3.500000E+01 3.500000E+01 3.500000E+01 
 3.500000E+01 3.500000E+01 3.500000E+01 3.500000E+01 3.500000E+01 3.500000E+01 3.500000E+01 3.500000E+01 3.500000E+01 3.500000E+01 3.500000E+01 3.500000E+01 3.500000E+01 3.500000E+01 3.500000E+01 3.500000E+01 3.500000E+01 3.500000E+01 3.500000E+01 3.500000E+01 3.500000E+01 
 3.500000E+01 3.500000E+01 3.500000E+01 3.500000E+01 3.500000E+01 3.500000E+01 3.500000E+01 3.500000E+01 3.500000E+01 3.500000E+01 3.500000E+01 3.500000E+01 3.500000E+01 3.500000E+01 3.500000E+01 3.500000E+01 3.500000E+01 3.500000E+01 3.500000E+01 3.500000E+01 3.500000E+01 
 3.500000E+01 3.500000E+01 3.500000E+01 3.500000E+01 3.500000E+01 3.500000E+01 3.500000E+01 3.500000E+01 3.500000E+01 3.500000E+01 3.500000E+01 3.500000E+01 3.500000E+01 3.500000E+01 3.500000E+01 3.500000E+01 3.500000E+01 3.500000E+01 3.500000E+01 3.500000E+01 3.500000E+01 
 3.500000E+01 3.500000E+01 3.500000E+01 3.500000E+01 3.500000E+01 3.500000E+01 3.500000E+01 3.500000E+01 3.500000E+01 3.500000E+01 3.500000E+01 3.500000E+01 3.500000E+01 3.500000E+01 3.500000E+01 3.500000E+01 3.500000E+01 3.500000E+01 3.500000E+01 3.500000E+01 3.500000E+01 
 3.500000E+01 3.500000E+01 3.500000E+01 3.500000E+01 3.500000E+01 3.500000E+01 3.500000E+01 3.500000E+01 3.500000E+01 3.500000E+01 3.500000E+01 3.500000E+01 3.500000E+01 3.500000E+01 3.500000E+01 3.500000E+01 3.500000E+01 3.500000E+01 3.500000E+01 3.500000E+01 3.500000E+01 
 3.500000E+01 3.500000E+01 3.500000E+01 3.500000E+01 3.500000E+01 3.500000E+01 3.500000E+01 3.500000E+01 3.500000E+01 3.500000E+01 3.500000E+01 3.500000E+01 3.500000E+01 3.500000E+01 3.500000E+01 3.500000E+01 3.500000E+01 3.500000E+01 3.500000E+01 3.500000E+01 3.500000E+01 
 3.500000E+01 3.500000E+01 3.500000E+01 3.500000E+01 3.500000E+01 3.500000E+01 3.500000E+01 3.500000E+01 3.500000E+01 3.500000E+01 3.500000E+01 3.500000E+01 3.500000E+01 3.500000E+01 3.500000E+01 3.500000E+01 3.500000E+01 3.500000E+01 3.500000E+01 3.500000E+01 3.500000E+01 
 3.500000E+01 3.500000E+01 3.500000E+01 3.500000E+01 3.500000E+01 3.500000E+01 3.500000E+01 3.500000E+01 3.500000E+01 3.500000E+01 3.500000E+01 3.500000E+01 3.500000E+01 3.500000E+01 3.500000E+01 3.500000E+01 3.500000E+01 3.500000E+01 3.500000E+01 3.500000E+01 3.500000E+01 
 3.500000E+01 3.500000E+01 3.500000E+01 3.500000E+01 3.500000E+01 3.500000E+01 3.500000E+01 3.500000E+01 3.500000E+01 3.500000E+01 3.500000E+01 3.500000E+01 3.500000E+01 3.500000E+01 3.500000E+01 3.500000E+01 3.500000E+01 3.500000E+01 3.500000E+01 3.500000E+01 3.500000E+01 
 3.500000E+01 3.500000E+01 3.500000E+01 3.500000E+01 3.500000E+01 3.500000E+01 3.500000E+01 3.500000E+01 3.500000E+01 3.500000E+01 3.500000E+01 3.500000E+01 3.500000E+01 3.500000E+01 3.500000E+01 3.500000E+01 3.500000E+01 3.500000E+01 3.500000E+01 3.500000E+01 3.500000E+01 
 3.500000E+01 3.500000E+01 3.500000E+01 3.500000E+01 3.500000E+01 3.500000E+01 3.500000E+01 3.500000E+01 3.500000E+01 3.500000E+01 3.500000E+01 3.500000E+01 3.500000E+01 3.500000E+01 3.500000E+01 3.500000E+01 3.500000E+01 3.500000E+01 3.500000E+01 3.500000E+01 3.500000E+01 
 3.500000E+01 3.500000E+01 3.500000E+01 3.500000E+01 3.500000E+01 3.500000E+01 3.500000E+01 3.500000E+01 3.500000E+01 3.500000E+01 3.500000E+01 3.500000E+01 3.500000E+01 3.500000E+01 3.500000E+01 3.500000E+01 3.500000E+01 3.500000E+01 3.500000E+01 3.500000E+01 3.500000E+01 
 3.500000E+01 3.500000E+01 3.500000E+01 3.500000E+01 3.500000E+01 3.500000E+01 3.500000E+01 3.500000E+01 3.500000E+01 3.500000E+01 3.500000E+01 3.500000E+01 3.500000E+01 3.500000E+01 3.500000E+01 3.500000E+01 3.500000E+01 3.500000E+01 3.500000E+01 3.500000E+01 3.500000E+01 
 