# MODFLOW2000 Constant-Head Boundary Package (CHD)
        80
        80         0
         1         1         1 35.000000 35.000000
         1         1         2 35.000000 35.000000
         1         1         3 35.000000 35.000000
         1         1         4 35.000000 35.000000
         1         1         5 35.000000 35.000000
         1         1         6 35.000000 35.000000
         1         1         7 35.000000 35.000000
         1         1         8 35.000000 35.000000
         1         1         9 35.000000 35.000000
         1         1        10 35.000000 35.000000
         1         1        11 35.000000 35.000000
         1         1        12 35.000000 35.000000
         1         1        13 35.000000 35.000000
         1         1        14 35.000000 35.000000
         1         1        15 35.000000 35.000000
         1         1        16 35.000000 35.000000
         1         1        17 35.000000 35.000000
         1         1        18 35.000000 35.000000
         1         1        19 35.000000 35.000000
         1         1        20 35.000000 35.000000
         1         1        21 35.000000 35.000000
         1         2         1 35.000000 35.000000
         1         2        21 35.000000 35.000000
         1         3         1 35.000000 35.000000
         1         3        21 35.000000 35.000000
         1         4         1 35.000000 35.000000
         1         4        21 35.000000 35.000000
         1         5         1 35.000000 35.000000
         1         5        21 35.000000 35.000000
         1         6         1 35.000000 35.000000
         1         6        21 35.000000 35.000000
         1         7         1 35.000000 35.000000
         1         7        21 35.000000 35.000000
         1         8         1 35.000000 35.000000
         1         8        21 35.000000 35.000000
         1         9         1 35.000000 35.000000
         1         9        21 35.000000 35.000000
         1        10         1 35.000000 35.000000
         1        10        21 35.000000 35.000000
         1        11         1 35.000000 35.000000
         1        11        21 35.000000 35.000000
         1        12         1 35.000000 35.000000
         1        12        21 35.000000 35.000000
         1        13         1 35.000000 35.000000
         1        13        21 35.000000 35.000000
         1        14         1 35.000000 35.000000
         1        14        21 35.000000 35.000000
         1        15         1 35.000000 35.000000
         1        15        21 35.000000 35.000000
         1        16         1 35.000000 35.000000
         1        16        21 35.000000 35.000000
         1        17         1 35.000000 35.000000
         1        17        21 35.000000 35.000000
         1        18         1 35.000000 35.000000
         1        18        21 35.000000 35.000000
         1        19         1 35.000000 35.000000
         1        19        21 35.000000 35.000000
         1        20         1 35.000000 35.000000
         1        20        21 35.000000 35.000000
         1        21         1 35.000000 35.000000
         1        21         2 35.000000 35.000000
         1        21         3 35.000000 35.000000
         1        21         4 35.000000 35.000000
         1        21         5 35.000000 35.000000
         1        21         6 35.000000 35.000000
         1        21         7 35.000000 35.000000
         1        21         8 35.000000 35.000000
         1        21         9 35.000000 35.000000
         1        21        10 35.000000 35.000000
         1        21        11 35.000000 35.000000
         1        21        12 35.000000 35.000000
         1        21        13 35.000000 35.000000
         1        21        14 35.000000 35.000000
         1        21        15 35.000000 35.000000
         1        21        16 35.000000 35.000000
         1        21        17 35.000000 35.000000
         1        21        18 35.000000 35.000000
         1        21        19 35.000000 35.000000
         1        21        20 35.000000 35.000000
         1        21        21 35.000000 35.000000
