# MODFLOW2005 multiplier Package Parent MD
         1
M1
         8         1(FREE)                       0
.00905262480 .00843125427 .00764415949 .00670497173 .00565830420 .00463054962 .00366442991 .00279551822 .00199698345 .00128298583 7.2219361E-4 3.5862002E-4 1.6148120E-4 6.8999054E-5 2.9515824E-5 1.3424559E-5 6.7424403E-6 3.7733283E-6 2.3252732E-6 1.5461587E-6 1.0890262E-6
.01029779641 .00967733059 .00880050290 .00772578928 .00653228996 .00536359973 .00433087932 .00346951332 .00266496740 .00183026414 .00106753206 5.3111640E-4 2.3251130E-4 9.3531069E-5 3.6552858E-5 1.4959610E-5 6.9281432E-6 3.6722718E-6 2.1927100E-6 1.4300343E-6 9.9760174E-7
.01139016439 .01069336520 .00963604252 .00831949213 .00687908526 .00551043452 .00449690668 .00382038458 .00324646985 .00252036811 .00162001146 8.6719206E-4 3.9656477E-4 1.5833377E-4 5.7299891E-5 2.0588115E-5 8.4562502E-6 4.0754135E-6 2.2613617E-6 1.4090431E-6 9.5671982E-7
.01217627240 .01133960984 .00997116960 .00825439930 .00650906198 .00494538233 .00404618131 .00363255742 .00342635078 .00314953456 .00235567340 .00148085408 7.7636366E-4 3.3464920E-4 1.1794370E-4 3.6330236E-5 1.2714626E-5 5.3023526E-6 2.6304714E-6 1.5077041E-6 9.7394531E-7
.01256986716 .01154443472 .00978293367 .00760180889 .00548363825 .00406395164 .00337366513 .00315219736 .00313218594 .00320900207 .00306917381 .00244858101 .00158016240 7.9666416E-4 3.0463871E-4 8.5966503E-5 2.3530009E-5 8.1540875E-6 3.4644556E-6 1.7689989E-6 1.0546498E-6
.01263759442 .01141277621 .00932077816 .00690946646 .00484523454 .00371346963 .00312677085 .00305103141 .00310005963 .00331533990 .00382522657 .00377549494 .00292515087 .00170049923 7.0044378E-4 2.0556281E-4 4.9814817E-5 1.4137754E-5 5.0356442E-6 2.2416328E-6 1.2135943E-6
.01248326603 .01121920838 .00919022844 .00699461640 .00530692519 .00443781917 .00409013894 .00388378037 .00389734009 .00431810020 .00514057653 .00551212778 .00464236474 .00287681108 .00124443380 3.7743391E-4 9.3091176E-5 2.4062088E-5 7.4896612E-6 2.9345714E-6 1.4330486E-6
.01217962075 .01114924796 .00949633361 .00780965898 .00666294902 .00625437454 .00629919752 .00578370436 .00565302241 .00618058557 .00716452610 .00759904738 .00645355060 .00402570234 .00178118478 5.6817078E-4 1.4656028E-4 3.6924942E-5 1.0600007E-5 3.7622786E-6 1.6733023E-6
.01166274671 .01097716846 .00983963213 .00867727792 .00801311421 .00788066789 .00811908105 .00790701431 .00792005283 .00856986981 .00954693194 .00973635416 .00806669211 .00497987362 .00223021558 7.4403806E-4 2.0030694E-4 5.0037203E-5 1.3642886E-5 4.5041198E-6 1.8677980E-6
.01080330326 .01039179413 .00960518559 .00870300684 .00796877772 .00804936411 .00872584150 .00916071862 .00967904691 .01058482882 .01156144982 .01146869548 .00936797899 .00578704708 .00259935843 8.8911062E-4 2.4312464E-4 5.9324102E-5 1.5482256E-5 4.8521212E-6 1.9201780E-6
.00958138600 .00924016944 .00855934922 .00767685830 .00693313264 .00723001218 .00819443667 .00916452809 .01016922716 .01139498310 .01249475158 .01246926733 .01042679305 .00669910148 .00307812801 .00101595690 2.6161138E-4 6.0713816E-5 1.5160611E-5 4.6086172E-6 1.7867934E-6
.00811213221 .00782572462 .00727307288 .00661020330 .00611174421 .00631515863 .00723650796 .00823859072 .00945298212 .01099822757 .01238508608 .01269852463 .01120784821 .00775875639 .00367178998 .00112510421 2.5539867E-4 5.3868338E-5 1.2788608E-5 3.8295766E-6 1.4960857E-6
.00667535590 .00642603149 .00607607484 .00571153727 .00552339026 .00580674656 .00634526248 .00699215446 .00824815207 .01002281465 .01172998431 .01243459437 .01154097275 .00877079878 .00429314061 .00114958143 2.1679871E-4 4.0518283E-5 9.2168935E-6 2.7893594E-6 1.1360561E-6
.00538174275 .00517353877 .00497500620 .00485104492 .00492507430 .00518655311 .00532417760 .00582995569 .00707257441 .00897196301 .01105681861 .01208643575 .01134902459 .00936505968 .00440726799 9.4850197E-4 1.4519511E-4 2.4673314E-5 5.6734819E-6 1.8315239E-6 8.0573168E-7
.00430333425 .00410174346 .00396316550 .00393846864 .00407723944 .00418483109 .00432213944 .00486353610 .00594896742 .00773166458 .00994480615 .01112433263 .01052463484 .00760399173 .00287930248 5.2135457E-4 6.9007639E-5 1.2135993E-5 3.1135993E-6 1.1343763E-6 5.5578652E-7
.00341953009 .00323483716 .00310419470 .00305269888 .00312311950 .00325013667 .00345337537 .00390281552 .00471139832 .00603920151 .00727894689 .00738688718 .00602706016 .00345429928 .00110488482 1.7300724E-4 2.4435772E-5 5.3900056E-6 1.6918865E-6 7.1837634E-7 3.9357180E-7
.00271766022 .00254550808 .00241408258 .00234130459 .00232870539 .00241522397 .00257929790 .00286939129 .00330037563 .00378612343 .00382053392 .00321262855 .00209027006 9.3697459E-4 2.5849120E-4 4.7382346E-5 9.6584267E-6 2.6763721E-6 1.0126211E-6 4.9653286E-7 2.9948682E-7
.00214968324 .00199477696 .00186790867 .00177939320 .00173123784 .00173464648 .00178224789 .00185566411 .00191000029 .00185081346 .00155791898 .00108249987 5.8423829E-4 2.3080281E-4 6.6572725E-5 1.6269034E-5 4.4662605E-6 1.5611385E-6 6.9679751E-7 3.8281996E-7 2.4779955E-7
.00169498866 .00155370530 .00143416002 .00133695906 .00126114886 .00120538841 .00115902142 .00109697999 9.9534111E-4 8.2474035E-4 5.9417543E-4 3.5786296E-4 1.7468368E-4 6.8474938E-5 2.2584872E-5 7.1424375E-6 2.5221810E-6 1.0704517E-6 5.4643217E-7 3.2736845E-7 2.2227841E-7
.00133313050 .00120606979 .00109067483 9.9352427E-4 9.0410840E-4 8.2254938E-4 7.3641773E-4 6.3769498E-4 5.1807440E-4 3.8115470E-4 2.4758376E-4 1.3849595E-4 6.6061507E-5 2.7415566E-5 1.0493757E-5 4.0620597E-6 1.7340617E-6 8.5044603E-7 4.7806434E-7 3.0414599E-7 2.1275852E-7
.00104610850 9.3345142E-4 8.2909218E-4 7.3386169E-4 6.4568046E-4 5.5904962E-4 4.7229444E-4 3.8063417E-4 2.8735770E-4 1.9765720E-4 1.2261690E-4 6.7566149E-5 3.3241616E-5 1.5013920E-5 6.5279090E-6 2.9253873E-6 1.4221996E-6 7.6436826E-7 4.5719314E-7 3.0070087E-7 2.1347141E-7
