# MODFLOW2005 Observation file (HOB) Marco
   12   0   2   14  999.0
    1   
P001T0000     1     5     5   1   1.0   0.0000   0.0000 999.000000
P002T0000     1    10     5   1   1.0   0.0000   0.0000 999.000000
P003T0000     1    16     5   1   1.0   0.0000   0.0000 999.000000
P004T0000     1     7     7   1   1.0   0.0000   0.0000 999.000000   
P005T0000     1    14     7   1   1.0   0.0000   0.0000 999.000000
P006T0000     1     5    10   1   1.0   0.0000   0.0000 999.000000
P007T0000     1    16    10   1   1.0   0.0000   0.0000 999.000000
P008T0000     1     7    14   1   1.0   0.0000   0.0000 999.000000   
P009T0000     1    14    14   1   1.0   0.0000   0.0000 999.000000
P010T0000     1     5    16   1   1.0   0.0000   0.0000 999.000000
P011T0000     1    10    16   1   1.0   0.0000   0.0000 999.000000
P012T0000     1    16    16   1   1.0   0.0000   0.0000 999.000000   
