# MODFLOW2000 Well Package
PARAMETER  0  0
         1        54
         1         0               Stress Period 1
         1        13         6 -3.0000000        0